%nprocshared=1
%mem=10GB
#p HF/3-21g POP=Hirshfeld density=current NoSymm

STEP 0 

0 1
C   4.730509   1.288533   0.463983
C   3.895041   0.033141   0.517227
O   2.773020  -0.011744  -0.021787
N   4.409480  -0.996630   1.179876
H   3.901534  -1.741664   1.366552
H   5.223114  -0.985284   1.534148
H   4.504864   1.791426   1.250524
H   5.648318   1.044998   0.438328
H   4.447404   1.910854  -0.252683

